Circuit: * C:\Users\rochi\Google Drive\Materias\Teoría de circuitos\TPs\TC_TP2\Ej2\Spice\tc_tp2_ej2.asc

Direct Newton iteration failed to find .op point.  (Use ".option noopiter" to skip.)
Starting Gmin stepping
Gmin = 10
vernier = 0.5
vernier = 0.25
vernier = 0.125
Gmin = 5.841
vernier = 0.0625
vernier = 0.03125
vernier = 0.015625
vernier = 0.0078125
Gmin = 5.97672
vernier = 0.00390625
vernier = 0.00195313
vernier = 0.000976563
vernier = 0.000488281
Gmin = 5.98328
Gmin = 0
Gmin stepping succeeded in finding the operating point.


Date: Tue Sep 04 10:17:11 2018
Total elapsed time: 0.147 seconds.

tnom = 27
temp = 27
method = trap
totiter = 1465
traniter = 0
tranpoints = 0
accept = 0
rejected = 0
matrix size = 29
fillins = 58
solver = Normal
Matrix Compiler1:     259 opcodes
Matrix Compiler2: off  [0.8]/0.9/1.1

